&time_control
 run_days                            = 0,
 run_hours                           = 0,
 run_minutes                         = 30,
 run_seconds                         = 0,
 start_year                          = 2025, 2025, 2025,
 start_month                         = 06,   06,   06,
 start_day                           = 14,   14,   14,
 start_hour                          = 00,   00,   00,
 start_minute                        = 00,   00,   00,
 start_second                        = 00,   00,   00,
 end_year                            = 2025, 2025, 2025,
 end_month                           = 06,   06,   06,
 end_day                             = 14,   14,   14,
 end_hour                            = 00,   00,   00,
 end_minute                          = 30,   30,   30,
 end_second                          = 00,   00,   00,
 interval_seconds                    = 21600
 input_from_file                     = .true.,.false.,.false.,
 history_interval                    = 60,  60,   60,
 frames_per_outfile                  = 1, 1, 1,
 restart                             = .false.,
 restart_interval                    = 60,
 io_form_history                     = 2
 io_form_restart                     = 2
 io_form_input                       = 2
 io_form_boundary                    = 2
 debug_level                         = 100
 /

 &domains
 time_step                           = 6,
 time_step_fract_num                 = 0,
 time_step_fract_den                 = 1,
 max_dom                             = 1,
 e_we                                = 41,    82,   101,
 e_sn                                = 41,    82,    101,
 e_vert                              = 41,    41,    41,
 dx                                  = 100000, 20000,  5000,
 dy                                  = 100000, 20000,  5000,
 ztop                                = 20000, 20000, 20000,
 /

 &physics
 mp_physics                          = 0,     0,     0,
 ra_lw_physics                       = 0,     0,     0,
 ra_sw_physics                       = 0,     0,     0,
 radt                                = 0,     0,     0,
 sf_sfclay_physics                   = 0,     0,     0,
 sf_surface_physics                  = 0,     0,     0,
 bl_pbl_physics                      = 0,     0,     0,
 bldt                                = 0,     0,     0,
 cu_physics                          = 0,     0,     0,
 cudt                                = 0,     0,     0,
 num_soil_layers                     = 5,
 num_land_cat                        = 24
 /

 &dynamics
 use_implicit_scheme                 = .true.,
 implicit_acoustic                   = .true.,
 implicit_gravity                    = .false.,
 theta_implicit                      = 0.6,
 implicit_solver_tol                 = 1.0e-6,
 implicit_solver_max_iter            = 10,
 implicit_solver_type                = 2,
 rk_ord                              = 3,
 diff_opt                            = 2,      2,      2,
 km_opt                              = 2,      2,      2,
 damp_opt                            = 3,
 base_temp                           = 268.
 zdamp                               = 5000.,  5000.,  5000.,
 dampcoef                            = 0.05,   0.05,   0.05
 khdif                               = 0.05,   0.05,   0.05,
 kvdif                               = 0.05,   0.05,   0.05,
 smdiv                               = 0.1,    0.1,    0.1,
 emdiv                               = 0.01,   0.01,   0.01,
 epssm                               = 0.1,    0.1,    0.1
 time_step_sound                     = 0,      0,      0,
 h_mom_adv_order                     = 5,      5,      5,
 v_mom_adv_order                     = 3,      3,      3,
 h_sca_adv_order                     = 5,      5,      5,
 v_sca_adv_order                     = 3,      3,      3,
 moist_adv_opt                       = 1,      1,      1,
 scalar_adv_opt                      = 1,      1,      1,
 chem_adv_opt                        = 1,      1,      1,
 tke_adv_opt                         = 1,      1,      1,
 non_hydrostatic                     = .true., .true., .true.,
 /

 &namelist_quilt
 nio_tasks_per_group = 0,
 nio_groups = 1,
 /