&time_control
 run_days                            = 0,
 run_hours                           = 0,
 run_minutes                         = 0,
 run_seconds                         = 3600,
 start_year                          = 2019, 2019,
 start_month                         = 09, 09,
 start_day                           = 04, 04,
 start_hour                          = 00, 00,
 start_minute                        = 00, 00,
 start_second                        = 00, 00,
 end_year                            = 2019, 2019,
 end_month                           = 09, 09,
 end_day                             = 04, 04,
 end_hour                            = 01, 01,
 end_minute                          = 00, 00,
 end_second                          = 00, 00,
 interval_seconds                    = 21600,
 input_from_file                     = .true.,.true.,
 history_interval                    = 180, 60,
 frames_per_outfile                  = 1, 1,
 restart                             = .false.,
 restart_interval                    = 1440,
 io_form_history                     = 2
 io_form_restart                     = 2
 io_form_input                       = 2
 io_form_boundary                    = 2
/

&domains
 time_step                           = 60,
 time_step_fract_num                 = 0,
 time_step_fract_den                 = 1,
 max_dom                             = 1,
 e_we                                = 41, 41,
 e_sn                                = 41, 41,
 e_vert                              = 41, 41,
 dzstretch_s                         = 1.1
 p_top_requested                     = 5000,
 num_metgrid_levels                  = 34,
 num_metgrid_soil_levels             = 4,
 dx                                  = 12000,
 dy                                  = 12000,
 grid_id                             = 1, 2,
 parent_id                           = 1, 1,
 i_parent_start                      = 1, 15,
 j_parent_start                      = 1, 15,
 parent_grid_ratio                   = 1, 3,
 parent_time_step_ratio              = 1, 3,
 feedback                            = 1,
 smooth_option                       = 0
/

&physics
 mp_physics                          = 8, 8,
 cu_physics                          = 0, 0,
 ra_lw_physics                       = 1, 1,
 ra_sw_physics                       = 1, 1,
 bl_pbl_physics                      = 0, 0,
 sf_sfclay_physics                   = 1, 1,
 sf_surface_physics                  = 2, 2,
 radt                                = 30, 30,
 bldt                                = 0, 0,
 cudt                                = 5, 5,
 icloud                              = 1,
 num_land_cat                        = 21,
 sf_urban_physics                    = 0, 0,
 fractional_seaice                   = 0,
/

&fdda
/

&dynamics
 hybrid_opt                          = 2,
 w_damping                           = 0,
 diff_opt                            = 2, 2,
 km_opt                              = 4, 4,
 diff_6th_opt                        = 0, 0,
 diff_6th_factor                     = 0.12, 0.12,
 base_temp                           = 290.
 damp_opt                            = 3,
 zdamp                               = 5000., 5000.,
 dampcoef                            = 0.2, 0.2,
 khdif                               = 0, 0,
 kvdif                               = 0, 0,
 non_hydrostatic                     = .true., .true.,
 moist_adv_opt                       = 1, 1,
 scalar_adv_opt                      = 1, 1,
 gwd_opt                             = 0, 0,
 h_mom_adv_order                     = 5, 5,
 v_mom_adv_order                     = 3, 3,
 h_sca_adv_order                     = 5, 5,
 v_sca_adv_order                     = 3, 3,
 time_step_sound                     = 6, 6,
 
 ! SDIRK-3 Time Integration Settings
 time_integration_scheme             = 1,          ! 0=RK3, 1=SDIRK3
 
 ! SDIRK-3 Newton Solver Parameters
 sdirk3_max_newton_iter              = 4,          ! Maximum Newton iterations per stage
 sdirk3_newton_tol                   = 1.e-6,      ! Newton convergence tolerance
 sdirk3_newton_tol_relax             = 1.e-5,      ! Relaxed Newton tolerance
 sdirk3_use_adaptive_tol             = .true.,     ! Use adaptive Newton tolerance
 
 ! SDIRK-3 GMRES Parameters
 sdirk3_gmres_restart                = 30,         ! GMRES restart parameter
 sdirk3_max_gmres_iter               = 50,         ! Maximum GMRES iterations
 sdirk3_gmres_tol                    = 1.e-4,      ! GMRES convergence tolerance
 
 ! SDIRK-3 Preconditioner Options
 sdirk3_precond_type                 = 1,          ! 0=none, 1=acoustic
 sdirk3_reuse_jacobian               = .true.,     ! Reuse Jacobian between stages
 
 ! SDIRK-3 Performance Options
 sdirk3_cache_graphs                 = .true.,     ! Cache LibTorch computational graphs
 sdirk3_graph_opt_level              = 2,          ! Graph optimization level (0-3)
 
 ! SDIRK-3 Adaptive Timestep Control (NEW)
 sdirk3_adaptive_timestep            = .true.,     ! Enable adaptive timestep control
 sdirk3_error_tol                    = 1.e-3,      ! Error tolerance for timestep adaptation
 sdirk3_safety_factor                = 0.9,        ! Safety factor for timestep adaptation
 sdirk3_dt_min_factor                = 0.1,        ! Minimum timestep factor (dt_min/dt)
 sdirk3_dt_max_factor                = 2.0,        ! Maximum timestep factor (dt_max/dt)
 sdirk3_error_norm_type              = 2,          ! Error norm: 1=L1, 2=L2, 3=Linf
 sdirk3_use_embedding                = .true.,     ! Use embedded error estimation
 
 ! SDIRK-3 Debugging and Output
 sdirk3_verbose                      = .true.,     ! Verbose SDIRK-3 output
 sdirk3_check_conservation           = .false.,    ! Check conservation properties
 sdirk3_print_frequency              = 10,         ! Print convergence every N steps
/

&bdy_control
 spec_bdy_width                      = 5,
 specified                           = .true.
/

&grib2
/

&namelist_quilt
 nio_tasks_per_group = 0,
 nio_groups = 1,
/