&time_control
 run_days                            = 0,
 run_hours                           = 0,
 run_minutes                         = 30,
 run_seconds                         = 0,
 start_year                          = 0001, 0001,
 start_month                         = 01,   01,
 start_day                           = 01,   01,
 start_hour                          = 00,   00,
 start_minute                        = 00,   00,
 start_second                        = 00,   00,
 end_year                            = 0001, 0001,
 end_month                           = 01,   01,
 end_day                             = 01,   01,
 end_hour                            = 00,   00,
 end_minute                          = 30,   30,
 end_second                          = 00,   00,
 history_interval                    = 1,  1,
 frames_per_outfile                  = 100, 100,
 restart                             = .false.,
 restart_interval                    = 5000,
 io_form_history                     = 2
 io_form_restart                     = 2
 io_form_input                       = 2
 io_form_boundary                    = 2
 debug_level                         = 0
/

&domains
 time_step                           = 2,
 time_step_fract_num                 = 0,
 time_step_fract_den                 = 1,
 max_dom                             = 1,
 s_we                                = 1,     1,
 e_we                                = 41,    91,
 s_sn                                = 1,     1,
 e_sn                                = 41,    91,
 s_vert                              = 1,     1,
 e_vert                              = 28,    28,
 dx                                  = 2000,
 dy                                  = 2000,
 ztop                                = 15000,
 grid_id                             = 1,     2,
 parent_id                           = 0,     1,
 i_parent_start                      = 0,     17,
 j_parent_start                      = 0,     17,
 parent_grid_ratio                   = 1,     3,
 parent_time_step_ratio              = 1,     3,
 feedback                            = 1,
 smooth_option                       = 0
/

&physics
 mp_physics                          = 0,     0,
 ra_lw_physics                       = 0,     0,
 ra_sw_physics                       = 0,     0,
 radt                                = 30,    30,
 sf_sfclay_physics                   = 0,     0,
 sf_surface_physics                  = 0,     0,
 bl_pbl_physics                      = 0,     0,
 bldt                                = 0,     0,
 cu_physics                          = 0,     0,
 cudt                                = 5,     5,
 isfflx                              = 1,
 ifsnow                              = 0,
 icloud                              = 0,
 surface_input_source                = 1,
 num_soil_layers                     = 5,
 maxiens                             = 1,
 maxens                              = 3,
 maxens2                             = 3,
 maxens3                             = 16,
 ensdim                              = 144,
/

&fdda
/

&dynamics
 rk_ord                              = 3,
 w_damping                           = 1,
 diff_opt                            = 1,
 km_opt                              = 1,
 damp_opt                            = 0,
 base_temp                           = 290.
 zdamp                               = 5000.,  5000.,
 dampcoef                            = 0.01,   0.01,
 khdif                               = 300,    300,
 kvdif                               = 1,      1,
 smdiv                               = 0.1,    0.1,
 emdiv                               = 0.01,   0.01,
 epssm                               = 0.1,    0.1,
 non_hydrostatic                     = .true., .true.,
 time_step_sound                     = 6,      6,
 h_mom_adv_order                     = 5,      5,
 v_mom_adv_order                     = 3,      3,
 h_sca_adv_order                     = 5,      5,
 v_sca_adv_order                     = 3,      3,
 libtorch_mode                       = 0,      0,
/

&bdy_control
 periodic_x                          = .true., .false.,
 symmetric_xs                        = .false.,.false.,
 symmetric_xe                        = .false.,.false.,
 open_xs                             = .false.,.false.,
 open_xe                             = .false.,.false.,
 periodic_y                          = .true., .false.,
 symmetric_ys                        = .false.,.false.,
 symmetric_ye                        = .false.,.false.,
 open_ys                             = .false.,.false.,
 open_ye                             = .false.,.false.,
 nested                              = .false., .true.,
/

&grib2
/

&namelist_quilt
 nio_tasks_per_group = 0,
 nio_groups = 1,
/

&ideal
 ideal_case                          = 9
/